/*--------------------------------*- C++ -*----------------------------------*\
| =========                 |                                                 |
| \\      /  F ield         | OpenFOAM: The Open Source CFD Toolbox           |
|  \\    /   O peration     | Version:  2.2.2                                 |
|   \\  /    A nd           | Web:      www.OpenFOAM.org                      |
|    \\/     M anipulation  |                                                 |
\*---------------------------------------------------------------------------*/
FoamFile
{
    version     2.0;
    format      ascii;
    class       volScalarField;
    object      alpha1;
}
// * * * * * * * * * * * * * * * * * * * * * * * * * * * * * * * * * * * * * //

dimensions      [0 0 0 0 0 0 0];

internalField   uniform 0;

boundaryField
{
    axis
    {
	 type symmetryPlane;
    }
    inlet
    {
        type            inletOutlet;
        value           uniform 1;
        inletValue      uniform 1;
    }

    atmosphere
    {
        type            zeroGradient;
    }

    inwall
    {
        type           constantAlphaContactAngle;
        theta0         45;
        limit          gradient;
        value          uniform 0;
    }

    outwall
    {
        type           constantAlphaContactAngle;
        theta0         45;
        limit          gradient;
        value          uniform 0;
    }

    defaultFaces
    {
        type            empty;
    }
   frontAndBackPlanes
    {
        type            empty;
      
    }
    frontAndBackPlanes_pos
    {
        type            empty;
    }
    frontAndBackPlanes_neg
    {
        type         empty;
    }
}


// ************************************************************************* //
