/*--------------------------------*- C++ -*----------------------------------*\
| =========                 |                                                 |
| \\      /  F ield         | OpenFOAM: The Open Source CFD Toolbox           |
|  \\    /   O peration     | Version:  2.3.0                                 |
|   \\  /    A nd           | Web:      www.OpenFOAM.org                      |
|    \\/     M anipulation  |                                                 |
\*---------------------------------------------------------------------------*/
FoamFile
{
    version     2.0;
    format      ascii;
    class       volVectorField;
    location    "0";
    object      U;
}
// * * * * * * * * * * * * * * * * * * * * * * * * * * * * * * * * * * * * * //

dimensions      [0 1 -1 0 0 0 0];

internalField   uniform (0 0 0);

boundaryField
{
    inlet
    {
        type            fixedValue;
        value           uniform (0 -0.01 0);
    }

    atmosphere
    {
        type            pressureInletOutletVelocity;
        value           uniform (0 0 0);
    }

    inwall
    {
        type            fixedValue;
        value           uniform (0 0 0);
    }

    outwall
    {
        type            fixedValue;
        value           uniform (0 0 0);
    }

    defaultFaces
    {
        type            empty;
    }
     
     frontAndBackPlanes
    {
        type            empty;
       
    }
    frontAndBackPlanes_pos
    {
        type            wedge;
       
    }
    frontAndBackPlanes_neg
    {
        type            wedge;
       
    } 
   axis
    {
        type            symmetryPlane;
        
    }
}


// ************************************************************************* //
